Version 4
SHEET 1 1584 680
WIRE -96 0 -208 0
WIRE 48 0 -32 0
WIRE 560 0 48 0
WIRE 640 0 560 0
WIRE 752 0 640 0
WIRE 416 64 176 64
WIRE -208 80 -208 0
WIRE 48 144 48 0
WIRE 640 160 640 0
WIRE 560 176 560 0
WIRE 416 192 416 144
WIRE 176 208 176 64
WIRE 144 224 48 224
WIRE 560 240 208 240
WIRE 640 240 560 240
WIRE 144 256 0 256
WIRE 416 272 416 192
WIRE 0 304 0 256
WIRE 176 352 176 272
WIRE 416 352 176 352
FLAG 416 192 0
FLAG -208 160 0
FLAG 752 0 Vout
FLAG -208 0 Vin
FLAG 0 384 0
SYMBOL OpAmps\\OP747 176 176 R0
SYMATTR InstName U1
SYMBOL voltage 416 48 R0
WINDOW 123 0 0 Left 0
WINDOW 39 0 0 Left 0
SYMATTR InstName V1
SYMATTR Value 15
SYMBOL voltage 416 256 R0
WINDOW 123 0 0 Left 0
WINDOW 39 0 0 Left 0
SYMATTR InstName V2
SYMATTR Value 15
SYMBOL res 32 128 R0
SYMATTR InstName R1
SYMATTR Value 4.7K
SYMBOL res 624 144 R0
WINDOW 0 34 19 Left 2
SYMATTR InstName R2
SYMATTR Value 1Meg
SYMBOL diode 576 240 R180
WINDOW 0 24 64 Left 2
WINDOW 3 24 0 Left 2
SYMATTR InstName D1
SYMATTR Value 1N4148
SYMBOL cap -32 -16 R90
WINDOW 0 0 32 VBottom 2
WINDOW 3 32 32 VTop 2
SYMATTR InstName C1
SYMATTR Value 1000µ
SYMBOL voltage -208 64 R0
WINDOW 123 0 0 Left 0
WINDOW 39 0 0 Left 0
SYMATTR InstName V3
SYMATTR Value SINE(0 5 1K)
SYMBOL voltage 0 288 R0
WINDOW 123 0 0 Left 0
WINDOW 39 0 0 Left 0
SYMATTR InstName V4
SYMATTR Value -4
TEXT 624 272 Left 2 !.tran 5ms
