Version 4
SHEET 1 1584 680
WIRE 496 -128 496 -160
WIRE 288 -64 32 -64
WIRE 32 16 32 -64
WIRE 128 16 32 16
WIRE 224 32 192 32
WIRE 288 32 288 -64
WIRE 496 32 496 -48
WIRE 128 48 -48 48
WIRE 288 96 288 32
WIRE 496 96 496 32
WIRE -48 160 -48 48
WIRE 496 192 496 176
WIRE 288 288 288 256
FLAG 496 32 0
FLAG 496 -160 VP
FLAG 160 0 VP
FLAG 160 64 VN
FLAG 496 192 VN
FLAG -48 240 0
FLAG 288 288 0
FLAG -48 48 VIN
FLAG 288 -64 VOUT
SYMBOL OpAmps\\OP07 160 -32 R0
SYMATTR InstName U1
SYMBOL voltage 496 -144 R0
WINDOW 123 0 0 Left 0
WINDOW 39 0 0 Left 0
SYMATTR InstName V1
SYMATTR Value 10
SYMBOL voltage 496 80 R0
WINDOW 123 0 0 Left 0
WINDOW 39 0 0 Left 0
SYMATTR InstName V2
SYMATTR Value 10
SYMBOL voltage 288 160 R0
WINDOW 123 0 0 Left 0
WINDOW 39 0 0 Left 0
SYMATTR InstName V3
SYMATTR Value 1
SYMBOL voltage -48 144 R0
WINDOW 123 0 0 Left 0
WINDOW 39 0 0 Left 0
SYMATTR InstName V4
SYMATTR Value SINE(0 2 1K)
SYMBOL diode 288 16 R90
WINDOW 0 0 32 VBottom 2
WINDOW 3 32 32 VTop 2
SYMATTR InstName D1
SYMBOL res 272 80 R0
SYMATTR InstName R1
SYMATTR Value 1K
TEXT -86 312 Left 2 !.tran 4MS
