Version 4
SHEET 1 880 680
WIRE 272 -32 256 -32
WIRE 448 -32 352 -32
WIRE 656 48 336 48
WIRE -128 96 -208 96
WIRE -32 96 -48 96
WIRE 0 96 -32 96
WIRE 256 96 256 -32
WIRE 256 96 80 96
WIRE 336 128 336 48
WIRE 256 144 256 96
WIRE 304 144 256 144
WIRE 656 144 656 128
WIRE 656 144 592 144
WIRE 448 160 448 -32
WIRE 448 160 368 160
WIRE 480 160 448 160
WIRE 592 160 592 144
WIRE -128 176 -208 176
WIRE -32 176 -48 176
WIRE 0 176 -32 176
WIRE 240 176 80 176
WIRE 304 176 240 176
WIRE 656 176 656 144
WIRE 240 224 240 176
WIRE 336 256 336 192
WIRE 656 256 336 256
FLAG 592 160 0
FLAG 480 160 Vout
FLAG 240 304 0
FLAG -208 176 0
FLAG -208 96 0
FLAG -32 96 V1
FLAG -32 176 V2
SYMBOL OpAmps\\OP747 336 96 R0
SYMATTR InstName U1
SYMBOL voltage 656 32 R0
WINDOW 123 0 0 Left 0
WINDOW 39 0 0 Left 0
SYMATTR InstName Vsat+
SYMATTR Value 15
SYMBOL voltage 656 160 R0
WINDOW 123 0 0 Left 0
WINDOW 39 0 0 Left 0
SYMATTR InstName Vsat-
SYMATTR Value 15
SYMBOL res 224 208 R0
SYMATTR InstName R1
SYMATTR Value 1K
SYMBOL res 368 -48 R90
WINDOW 0 0 56 VBottom 2
WINDOW 3 32 56 VTop 2
SYMATTR InstName R2
SYMATTR Value 2K
SYMBOL res 96 80 R90
WINDOW 0 0 56 VBottom 2
WINDOW 3 32 56 VTop 2
SYMATTR InstName R3
SYMATTR Value 2K
SYMBOL res 96 160 R90
WINDOW 0 0 56 VBottom 2
WINDOW 3 32 56 VTop 2
SYMATTR InstName R4
SYMATTR Value 1K
SYMBOL voltage -32 96 R90
WINDOW 0 -32 56 VBottom 2
WINDOW 3 32 56 VTop 2
WINDOW 123 0 0 Left 0
WINDOW 39 0 0 Left 0
SYMATTR InstName V1
SYMATTR Value SINE(0 2 800)
SYMBOL voltage -32 176 R90
WINDOW 0 -32 56 VBottom 2
WINDOW 3 32 56 VTop 2
WINDOW 123 0 0 Left 0
WINDOW 39 0 0 Left 0
SYMATTR InstName V2
SYMATTR Value SINE(0 3 800)
TEXT 568 280 Left 2 !.tran 2m
