Version 4
SHEET 1 880 680
WIRE 272 -80 208 -80
WIRE 272 -16 272 -80
WIRE 352 -16 272 -16
WIRE 464 -16 432 -16
WIRE 336 16 -80 16
WIRE -80 64 -80 16
WIRE 144 80 128 80
WIRE 192 80 144 80
WIRE 272 80 272 -16
WIRE 48 112 48 80
WIRE 336 128 336 16
WIRE 272 144 272 80
WIRE 272 144 240 144
WIRE 304 144 272 144
WIRE -80 160 -80 144
WIRE -80 160 -144 160
WIRE 464 160 464 -16
WIRE 464 160 368 160
WIRE 480 160 464 160
WIRE -144 176 -144 160
WIRE 304 176 288 176
WIRE -80 192 -80 160
WIRE 336 272 336 192
WIRE 336 272 -80 272
WIRE 240 320 240 144
WIRE 240 320 208 320
FLAG -144 176 0
FLAG 48 112 0
FLAG 480 160 Vout
FLAG 144 80 Vin
FLAG 48 -80 0
FLAG 48 320 0
FLAG 288 176 0
SYMBOL OpAmps\\OP747 336 96 R0
SYMATTR InstName U1
SYMBOL voltage -80 48 R0
WINDOW 123 0 0 Left 0
WINDOW 39 0 0 Left 0
SYMATTR InstName Vsat+
SYMATTR Value 15
SYMBOL voltage -80 176 R0
WINDOW 123 0 0 Left 0
WINDOW 39 0 0 Left 0
SYMATTR InstName Vsat-
SYMATTR Value 15
SYMBOL voltage 144 80 R90
WINDOW 0 -32 56 VBottom 2
WINDOW 3 55 56 VTop 2
WINDOW 123 0 0 Left 0
WINDOW 39 0 0 Left 0
SYMATTR InstName V3
SYMATTR Value SINE(0 1 800)
SYMBOL voltage 144 320 R90
WINDOW 0 -32 56 VBottom 2
WINDOW 3 55 56 VTop 2
WINDOW 123 0 0 Left 0
WINDOW 39 0 0 Left 0
SYMATTR InstName V1
SYMATTR Value 4
SYMBOL voltage 144 -80 R90
WINDOW 0 -32 56 VBottom 2
WINDOW 3 55 56 VTop 2
WINDOW 123 0 0 Left 0
WINDOW 39 0 0 Left 0
SYMATTR InstName V2
SYMATTR Value 6
SYMBOL res 224 -96 R90
WINDOW 0 0 56 VBottom 2
WINDOW 3 32 56 VTop 2
SYMATTR InstName R2
SYMATTR Value 1K
SYMBOL res 448 -32 R90
WINDOW 0 0 56 VBottom 2
WINDOW 3 32 56 VTop 2
SYMATTR InstName RF
SYMATTR Value 1K
SYMBOL res 288 64 R90
WINDOW 0 0 56 VBottom 2
WINDOW 3 32 56 VTop 2
SYMATTR InstName R3
SYMATTR Value 1K
SYMBOL res 224 304 R90
WINDOW 0 0 56 VBottom 2
WINDOW 3 32 56 VTop 2
SYMATTR InstName R1
SYMATTR Value 1K
TEXT -168 296 Left 2 !.tran 2m
