Version 4
SHEET 1 880 680
WIRE 352 -16 272 -16
WIRE 464 -16 432 -16
WIRE 336 16 -80 16
WIRE -80 64 -80 16
WIRE 336 128 336 16
WIRE 272 144 272 -16
WIRE 304 144 272 144
WIRE -80 160 -80 144
WIRE -80 160 -144 160
WIRE 464 160 464 -16
WIRE 464 160 368 160
WIRE 480 160 464 160
WIRE -144 176 -144 160
WIRE 128 176 112 176
WIRE 160 176 128 176
WIRE 176 176 160 176
WIRE 304 176 240 176
WIRE -80 192 -80 160
WIRE 32 208 32 176
WIRE 336 272 336 192
WIRE 336 272 -80 272
WIRE 240 320 240 176
WIRE 240 320 208 320
WIRE 240 464 240 320
WIRE 240 464 208 464
FLAG -144 176 0
FLAG 32 208 0
FLAG 480 160 Vout
FLAG 128 176 Vin
FLAG 48 464 0
FLAG 48 320 0
FLAG 192 -16 0
SYMBOL OpAmps\\OP747 336 96 R0
SYMATTR InstName U1
SYMBOL voltage -80 48 R0
WINDOW 123 0 0 Left 0
WINDOW 39 0 0 Left 0
SYMATTR InstName Vsat+
SYMATTR Value 15
SYMBOL voltage -80 176 R0
WINDOW 123 0 0 Left 0
WINDOW 39 0 0 Left 0
SYMATTR InstName Vsat-
SYMATTR Value 15
SYMBOL voltage 128 176 R90
WINDOW 0 -32 56 VBottom 2
WINDOW 3 55 56 VTop 2
WINDOW 123 0 0 Left 0
WINDOW 39 0 0 Left 0
SYMATTR InstName V3
SYMATTR Value SINE(0 1 800)
SYMBOL voltage 144 320 R90
WINDOW 0 -32 56 VBottom 2
WINDOW 3 55 56 VTop 2
WINDOW 123 0 0 Left 0
WINDOW 39 0 0 Left 0
SYMATTR InstName V1
SYMATTR Value 4
SYMBOL voltage 144 464 R90
WINDOW 0 -32 56 VBottom 2
WINDOW 3 55 56 VTop 2
WINDOW 123 0 0 Left 0
WINDOW 39 0 0 Left 0
SYMATTR InstName V2
SYMATTR Value 6
SYMBOL res 224 448 R90
WINDOW 0 0 56 VBottom 2
WINDOW 3 32 56 VTop 2
SYMATTR InstName R2
SYMATTR Value 1K
SYMBOL res 448 -32 R90
WINDOW 0 0 56 VBottom 2
WINDOW 3 32 56 VTop 2
SYMATTR InstName RF
SYMATTR Value 1K
SYMBOL res 256 160 R90
WINDOW 0 0 56 VBottom 2
WINDOW 3 32 56 VTop 2
SYMATTR InstName R3
SYMATTR Value 1K
SYMBOL res 224 304 R90
WINDOW 0 0 56 VBottom 2
WINDOW 3 32 56 VTop 2
SYMATTR InstName R1
SYMATTR Value 1K
SYMBOL res 288 -32 R90
WINDOW 0 0 56 VBottom 2
WINDOW 3 32 56 VTop 2
SYMATTR InstName RI
SYMATTR Value 1K
TEXT -168 296 Left 2 !.tran 2m
