Version 4
SHEET 1 1584 680
WIRE 544 -16 208 -16
WIRE 656 48 384 48
WIRE 384 128 384 48
WIRE 208 144 208 -16
WIRE 352 144 208 144
WIRE 656 144 656 128
WIRE 672 144 656 144
WIRE 480 160 416 160
WIRE 544 160 544 -16
WIRE 352 176 208 176
WIRE 656 176 656 144
WIRE 208 192 208 176
WIRE 384 256 384 192
WIRE 656 256 384 256
WIRE 544 304 544 160
WIRE 208 320 208 272
FLAG 672 144 0
FLAG 208 320 0
FLAG 544 368 0
SYMBOL OpAmps\\OP747 384 96 R0
SYMATTR InstName U1
SYMBOL voltage 656 32 R0
WINDOW 123 0 0 Left 0
WINDOW 39 0 0 Left 0
SYMATTR InstName Vsat+
SYMATTR Value 15
SYMBOL voltage 656 160 R0
WINDOW 123 0 0 Left 0
WINDOW 39 0 0 Left 0
SYMATTR InstName Vsat-
SYMATTR Value 15
SYMBOL cap 528 304 R0
SYMATTR InstName C1
SYMATTR Value 1n
SYMBOL voltage 208 176 R0
WINDOW 3 24 96 Invisible 2
WINDOW 123 0 0 Left 0
WINDOW 39 0 0 Left 0
SYMATTR Value SINE(0 1 1K)
SYMATTR InstName V1
SYMBOL diode 544 144 R90
WINDOW 0 0 32 VBottom 2
WINDOW 3 32 32 VTop 2
SYMATTR InstName D1
TEXT 568 280 Left 2 !.tran 1m
