Version 4
SHEET 1 880 680
WIRE 448 0 208 0
WIRE 656 48 384 48
WIRE 384 128 384 48
WIRE 208 144 208 0
WIRE 352 144 208 144
WIRE 656 144 656 128
WIRE 656 144 592 144
WIRE 448 160 448 0
WIRE 448 160 416 160
WIRE 480 160 448 160
WIRE 544 160 544 -16
WIRE 592 160 592 144
WIRE 352 176 256 176
WIRE 656 176 656 144
WIRE 256 224 256 176
WIRE 384 256 384 192
WIRE 656 256 384 256
FLAG 592 160 0
FLAG 544 -16 Vout
FLAG 256 304 0
FLAG 256 176 Vin
SYMBOL OpAmps\\OP747 384 96 R0
SYMATTR InstName U1
SYMBOL voltage 656 32 R0
WINDOW 123 0 0 Left 0
WINDOW 39 0 0 Left 0
SYMATTR InstName Vsat+
SYMATTR Value 15
SYMBOL voltage 656 160 R0
WINDOW 123 0 0 Left 0
WINDOW 39 0 0 Left 0
SYMATTR InstName Vsat-
SYMATTR Value 15
SYMBOL voltage 256 208 R0
WINDOW 123 0 0 Left 0
WINDOW 39 0 0 Left 0
SYMATTR InstName V1
SYMATTR Value SINE(0 1 800)
SYMBOL diode 480 176 R270
WINDOW 0 32 32 VTop 2
WINDOW 3 0 32 VBottom 2
SYMATTR InstName D1
TEXT 568 280 Left 2 !.tran 2m
