Version 4
SHEET 1 880 680
WIRE -704 -160 -704 -192
WIRE -256 -112 -464 -112
WIRE 256 -96 16 -96
WIRE -704 -32 -704 -80
WIRE -368 -32 -368 -160
WIRE 128 -32 128 -160
WIRE -464 -16 -464 -112
WIRE -400 -16 -464 -16
WIRE -704 0 -704 -32
WIRE -256 0 -256 -112
WIRE -256 0 -336 0
WIRE -176 0 -256 0
WIRE 160 0 160 -16
WIRE -400 16 -560 16
WIRE -80 16 -80 0
WIRE 16 16 16 -96
WIRE 16 16 -80 16
WIRE 96 16 16 16
WIRE 160 16 160 0
WIRE 256 16 256 -96
WIRE 256 16 160 16
WIRE -560 64 -560 16
WIRE -544 64 -560 64
WIRE -96 96 -96 48
WIRE -704 112 -704 80
FLAG -704 -32 0
FLAG -96 176 0
FLAG 16 80 0
FLAG -704 -192 VP
FLAG -368 -160 VP
FLAG 128 -160 VP
FLAG -704 112 Vn
FLAG -544 144 0
FLAG -560 16 Vin
FLAG 256 16 Vout
FLAG -368 32 0
FLAG 128 32 0
SYMBOL OpAmps\\OP747 -368 -64 R0
SYMATTR InstName U1
SYMBOL OpAmps\\OP747 128 -64 R0
SYMATTR InstName U2
SYMBOL nmos -176 48 R270
SYMATTR InstName M1
SYMATTR Value BSP89
SYMBOL cap 0 16 R0
SYMATTR InstName C1
SYMATTR Value 1µ
SYMBOL voltage -96 80 R0
WINDOW 123 0 0 Left 0
WINDOW 39 0 0 Left 0
SYMATTR InstName V1
SYMATTR Value PULSE(0 5 0n 0n 0n 50u 100u)
SYMBOL voltage -704 -176 R0
WINDOW 123 0 0 Left 0
WINDOW 39 0 0 Left 0
SYMATTR InstName V2
SYMATTR Value 10
SYMBOL voltage -704 -16 R0
WINDOW 123 0 0 Left 0
WINDOW 39 0 0 Left 0
SYMATTR InstName V3
SYMATTR Value 10
SYMBOL voltage -544 48 R0
WINDOW 123 0 0 Left 0
WINDOW 39 0 0 Left 0
SYMATTR InstName V4
SYMATTR Value SINE(1 1 1k)
TEXT -738 200 Left 2 !.tran 2m
