Version 4
SHEET 1 880 680
WIRE 384 0 208 0
WIRE 384 16 384 0
WIRE 272 80 112 80
WIRE 208 112 208 0
WIRE 384 112 384 96
WIRE 112 128 112 80
WIRE 176 128 112 128
WIRE 272 144 272 80
WIRE 272 144 240 144
WIRE -64 160 -160 160
WIRE -16 160 -64 160
WIRE 176 160 64 160
WIRE 384 176 384 112
WIRE -240 208 -240 160
WIRE -240 208 -320 208
WIRE -240 240 -240 208
WIRE -96 240 -176 240
WIRE -48 240 -96 240
WIRE 64 240 64 160
WIRE 64 240 16 240
WIRE -96 256 -96 240
WIRE -64 272 -64 160
WIRE -16 272 -64 272
WIRE 208 288 208 176
WIRE 384 288 384 256
WIRE 384 288 208 288
WIRE -96 368 -96 336
WIRE -16 368 -16 336
WIRE -16 368 -96 368
FLAG 384 112 0
FLAG -320 288 0
SYMBOL OpAmps\\OP747 208 80 R0
SYMATTR InstName U1
SYMBOL voltage 384 0 R0
WINDOW 123 0 0 Left 0
WINDOW 39 0 0 Left 0
SYMATTR InstName V1
SYMATTR Value 10
SYMBOL voltage 384 160 R0
WINDOW 123 0 0 Left 0
WINDOW 39 0 0 Left 0
SYMATTR InstName V2
SYMATTR Value 10
SYMBOL res -112 240 R0
SYMATTR InstName R1
SYMATTR Value 51
SYMBOL res -144 144 R90
WINDOW 0 0 56 VBottom 2
WINDOW 3 32 56 VTop 2
SYMATTR InstName R2
SYMATTR Value 100
SYMBOL res 80 144 R90
WINDOW 0 0 56 VBottom 2
WINDOW 3 32 56 VTop 2
SYMATTR InstName R3
SYMATTR Value 100
SYMBOL cap -32 272 R0
SYMATTR InstName C1
SYMATTR Value 10n
SYMBOL cap -176 224 R90
WINDOW 0 0 32 VBottom 2
WINDOW 3 32 32 VTop 2
SYMATTR InstName C2
SYMATTR Value 4.7n
SYMBOL cap 16 224 R90
WINDOW 0 0 32 VBottom 2
WINDOW 3 32 32 VTop 2
SYMATTR InstName C3
SYMATTR Value 4.7n
SYMBOL voltage -320 192 R0
WINDOW 123 24 124 Left 2
WINDOW 39 0 0 Left 0
SYMATTR InstName V3
SYMATTR Value ""
SYMATTR Value2 AC 1
TEXT -354 374 Left 2 !.ac dec 100 1 1000k
